-------------------------------------------------------
          Amber 12 SANDER                              2012
          -------------------------------------------------------

  [-O]verwriting output

File Assignments:

 Here is the input file:

100ps NEB ALA-ALA equilibration

 &cntrl

  imin = 0, irest = 1, ntx=5,
  ntc=1, ntf=1,
  ntpr=1000, ntwx=5000,
  ntb = 0, cut = 999.0, rgbmax=999.0,
  igb = 1, saltcon=0.2,
  nstlim = 100000, nscm= 0,
  dt = 0.001,
  ntt = 3, gamma_ln=1000.0,
  temp0=300,
  ineb = 1,skmin = 50,skmax = 50
  tgtfitmask=":1,2,3",
  tgtrmsmask=":1,2,3@N,CA,C",
  ig=-1,
 /

--------------------------------------------------------------------------------
   1.  RESOURCE   USE:
--------------------------------------------------------------------------------

 NATOM  =      22 NTYPES =       7 NBONH =      12 MBONA  =       9
 NTHETH =      25 MTHETA =      11 NPHIH =      43 MPHIA  =      24
 NHPARM =       0 NPARM  =       0 NNB   =      99 NRES   =       3
 NBONA  =       9 NTHETA =      11 NPHIA =      24 NUMBND =      11
 NUMANG =      21 NPTRA  =      20 NATYP =       8 NPHB   =       0
 IFBOX  =       0 NMXRS  =      10 IFCAP =       0 NEXTRA =       0
 NCOPY  =       0

 Implicit solvent radii are modified Bondi radii (mbondi)

Note: ig = -1. Setting random seed based on wallclock time in microseconds
      and disabling the synchronization of random numbers between tasks
      to improve performance.

--------------------------------------------------------------------------------
   2.  CONTROL  DATA  FOR  THE  RUN
--------------------------------------------------------------------------------

default_name

General flags:
     imin    =       0, nmropt  =       0

Nature and format of input:
     ntx     =       5, irest   =       1, ntrx    =       1

Nature and format of output:
     ntxo    =       1, ntpr    =    1000, ntrx    =       1, ntwr    =     500
     iwrap   =       0, ntwx    =    5000, ntwv    =       0, ntwe    =       0
     ioutfm  =       0, ntwprt  =       0, idecomp =       0, rbornstat=      0

Potential function:
     ntf     =       1, ntb     =       0, igb     =       1, nsnb    =      25
     ipol    =       0, gbsa    =       0, iesp    =       0
     dielc   =   1.00000, cut     = 999.00000, intdiel =   1.00000
     saltcon =   0.20000, offset  =   0.09000, gbalpha=    1.00000
     gbbeta  =   0.00000, gbgamma =   0.00000, surften =   0.00500
     rdt     =   0.00000, rgbmax  = 999.00000  extdiel =  78.50000
     alpb  =        0

Frozen or restrained atoms:
     ibelly  =       0, ntr     =       0

Molecular dynamics:
     nstlim  =    100000, nscm    =         0, nrespa  =         1
     t       =   0.00000, dt      =   0.00100, vlimit  =  20.00000

Langevin dynamics temperature regulation:
     ig      =   48702
     temp0   = 300.00000, tempi   =   0.00000, gamma_ln=1000.00000

The following selection will be used for NEB structure fitting
     Mask ":1,2,3" matches    22 atoms
The following selection will be used for NEB force application
     Mask ":1,2,3@N,CA,C" matches     5 atoms

  Last atom in NEB fitmask or rmsmask is     22

--------------------------------------------------------------------------------
   3.  ATOMIC COORDINATES AND VELOCITIES
--------------------------------------------------------------------------------

default_name
 begin time read from input coords =    20.000 ps

 Number of triangulated 3-point waters found:        0

--------------------------------------------------------------------------------
   4.  RESULTS
 NSTEP =     1000   TIME(PS) =      21.000  TEMP(K) =   442.09  PRESS =     0.0
 Etot   =         2.9369  EKtot   =        28.9912  EPtot      =       -26.0542
 BOND   =         4.2214  ANGLE   =         5.8235  DIHED      =        10.9626
 1-4 NB =         3.0702  1-4 EEL =        43.8321  VDWAALS    =        -1.7073
 EELEC  =       -74.5045  EGB     =       -17.7523  RESTRAINT  =         0.0000
NEB replicate breakdown:
Energy for replicate   1 =      -36.0245
Energy for replicate   2 =      -16.9934
Energy for replicate   3 =      -19.0520
Energy for replicate   4 =      -21.3587
Energy for replicate   5 =      -10.3946
Energy for replicate   6 =      -19.7017
Energy for replicate   7 =      -16.7487
Energy for replicate   8 =      -19.2858
Energy for replicate   9 =      -26.0542
Energy for replicate  10 =      -18.7351
Energy for replicate  11 =      -17.2144
Energy for replicate  12 =      -19.3800
Energy for replicate  13 =      -17.7852
Energy for replicate  14 =      -21.5432
Energy for replicate  15 =      -14.8070
Energy for replicate  16 =      -12.6764
Energy for replicate  17 =      -11.8539
Energy for replicate  18 =      -17.8837
Energy for replicate  19 =      -16.2246
Energy for replicate  20 =      -15.5593
Energy for replicate  21 =      -14.7061
Energy for replicate  22 =      -19.6083
Energy for replicate  23 =      -22.1494
Energy for replicate  24 =      -17.3607
Energy for replicate  25 =      -20.6482

      A V E R A G E S   O V E R  100000 S T E P S

 NSTEP =   100000   TIME(PS) =     120.000  TEMP(K) =   300.14  PRESS =     0.0
 Etot   =         1.6846  EKtot   =        19.6823  EPtot      =       -17.9976
 BOND   =         7.3894  ANGLE   =         9.3684  DIHED      =        11.9216
 1-4 NB =         3.2035  1-4 EEL =        44.5416  VDWAALS    =        -1.6710
 EELEC  =       -74.3501  EGB     =       -18.4011  RESTRAINT  =         0.0000
NEB replicate breakdown:
Energy for replicate   1 =      -36.0245
Energy for replicate   2 =      -18.2008
Energy for replicate   3 =      -16.8840
Energy for replicate   4 =      -18.0081
Energy for replicate   5 =      -17.2341
Energy for replicate   6 =      -17.6176
Energy for replicate   7 =      -21.5377
Energy for replicate   8 =      -19.5057
Energy for replicate   9 =      -23.8069
Energy for replicate  10 =      -23.6780
Energy for replicate  11 =      -23.5948
Energy for replicate  12 =      -23.8504
Energy for replicate  13 =      -19.9990
Energy for replicate  14 =      -18.1357
Energy for replicate  15 =      -18.1182
Energy for replicate  16 =      -17.4731
Energy for replicate  17 =      -11.9994
Energy for replicate  18 =      -13.9985
Energy for replicate  19 =      -12.7224
Energy for replicate  20 =      -19.3013
Energy for replicate  21 =      -14.5314
Energy for replicate  22 =      -15.5805

      R M S  F L U C T U A T I O N S

 NSTEP =   100000   TIME(PS) =     120.000  TEMP(K) =    52.06  PRESS =     0.0
 Etot   =         4.8428  EKtot   =         3.4137  EPtot      =         3.4323
 BOND   =         2.2413  ANGLE   =         2.3933  DIHED      =         1.4758
 1-4 NB =         0.7799  1-4 EEL =         1.9301  VDWAALS    =         0.3573
 EELEC  =         1.6844  EGB     =         1.0307  RESTRAINT  =         0.0000
NEB replicate breakdown:
Energy for replicate   1 =      -36.0245
Energy for replicate   2 =      -18.2008
Energy for replicate   3 =      -16.8840
Energy for replicate   4 =      -18.0081
Energy for replicate   5 =      -17.2341
Energy for replicate   6 =      -17.6176
Energy for replicate   7 =      -21.5377
Energy for replicate   8 =      -19.5057
Energy for replicate   9 =      -23.8069
Energy for replicate  10 =      -23.6780
Energy for replicate  11 =      -23.5948
Energy for replicate  12 =      -23.8504
Energy for replicate  13 =      -19.9990
Energy for replicate  14 =      -18.1357
Energy for replicate  15 =      -18.1182
Energy for replicate  16 =      -17.4731
Energy for replicate  17 =      -11.9994
Energy for replicate  18 =      -13.9985
Energy for replicate  19 =      -12.7224
Energy for replicate  20 =      -19.3013
Energy for replicate  21 =      -14.5314
Energy for replicate  22 =      -15.5805
